Version 4.1
SHEET 1 1440 724
WIRE 96 -224 64 -224
WIRE 208 -224 176 -224
WIRE 176 -192 176 -224
WIRE 176 -96 176 -112
WIRE 128 -16 -16 -16
WIRE 608 16 608 -16
WIRE -16 32 -16 -16
WIRE -16 48 -16 32
WIRE 64 48 -16 48
WIRE 176 48 176 0
WIRE 176 48 144 48
WIRE 176 64 176 48
WIRE 592 64 464 64
WIRE 720 64 688 64
WIRE 1072 144 1072 80
WIRE 16 176 16 144
WIRE 1072 240 1072 208
WIRE 288 256 288 224
WIRE 496 256 496 224
WIRE 16 272 16 256
WIRE 128 272 128 256
WIRE 128 272 16 272
WIRE 16 288 16 272
WIRE 720 288 624 288
WIRE 896 304 784 304
WIRE 720 320 624 320
WIRE -80 352 -224 352
WIRE 896 352 896 336
WIRE 288 368 288 336
WIRE 288 368 240 368
WIRE 496 368 496 336
WIRE 576 368 496 368
WIRE 752 368 752 336
WIRE 288 384 288 368
WIRE 496 384 496 368
WIRE -160 432 -160 416
WIRE -224 448 -224 352
WIRE -192 448 -224 448
WIRE -80 464 -80 352
WIRE -80 464 -128 464
WIRE -32 464 -80 464
WIRE 368 464 288 464
WIRE 496 464 368 464
WIRE -192 480 -256 480
WIRE 368 480 368 464
WIRE -160 528 -160 496
FLAG 16 288 0
FLAG 16 144 Vbus
FLAG 128 176 Vcc
FLAG 1072 240 0
FLAG 1072 80 Vout
FLAG 608 -16 Vgate
FLAG 720 64 Vout
FLAG 464 64 Vbus
FLAG 288 224 Vbus
FLAG 496 224 Vout
FLAG 528 -128 Vbus
FLAG 608 -128 Vout
FLAG 368 480 0
FLAG 240 368 Vbus_scaled
FLAG 576 368 Vsns
FLAG 752 272 Vcc
FLAG 960 288 Vcomp
FLAG 64 -224 Vbus
FLAG 176 64 0
FLAG -96 32 Vcomp
FLAG 208 -224 Vgate
FLAG -160 416 Vcc
FLAG -32 464 Vtrip
FLAG -256 480 Vbus_scaled
FLAG 624 320 Vsns
FLAG 624 288 Vtrip
FLAG 752 368 0
FLAG 896 352 0
FLAG -160 528 0
SYMBOL voltage 16 160 R0
WINDOW 123 0 0 Left 0
WINDOW 39 0 0 Left 0
SYMATTR InstName V1
SYMATTR Value 60
SYMBOL voltage 128 160 R0
WINDOW 123 0 0 Left 0
WINDOW 39 0 0 Left 0
SYMATTR InstName V2
SYMATTR Value 5
SYMBOL cap 1056 144 R0
SYMATTR InstName C1
SYMATTR Value 1m
SYMBOL pmos 688 16 R90
SYMATTR InstName M1
SYMATTR Value AO6407
SYMBOL res 272 240 R0
SYMATTR InstName R1
SYMATTR Value 55k
SYMBOL res 480 240 R0
SYMATTR InstName R2
SYMATTR Value 55k
SYMBOL res 480 368 R0
SYMATTR InstName R3
SYMATTR Value 5k
SYMBOL res 272 368 R0
SYMATTR InstName R4
SYMATTR Value 5k
SYMBOL res 624 -144 R90
WINDOW 0 0 56 VBottom 2
WINDOW 3 32 56 VTop 2
SYMATTR InstName R5
SYMATTR Value 5k
SYMBOL res 192 -240 R90
WINDOW 0 0 56 VBottom 2
WINDOW 3 32 56 VTop 2
SYMATTR InstName R8
SYMATTR Value 100k
SYMBOL res 160 -208 R0
SYMATTR InstName R9
SYMATTR Value 1k
SYMBOL res 0 16 R90
WINDOW 0 0 56 VBottom 2
WINDOW 3 32 56 VTop 2
SYMATTR InstName R10
SYMATTR Value 22
SYMBOL nmos 128 -96 R0
SYMATTR InstName M2
SYMBOL OpAmps\\AD8017 -160 400 R0
SYMATTR InstName U3
SYMBOL res 160 32 R90
WINDOW 0 0 56 VBottom 2
WINDOW 3 32 56 VTop 2
SYMATTR InstName R6
SYMATTR Value 10k
SYMBOL OpAmps\\AD8017 752 240 R0
SYMATTR InstName U1
SYMBOL Digital\\schmitt 896 240 R0
SYMATTR InstName A1
TEXT -216 648 Left 2 !.tran 0 20 0 .0001
TEXT 1016 320 Left 2 !.ic V(Vout) = 0
